Circuit: * C:\Users\rata\Dropbox\Ratatech\projects\ratatech_talkbox\ltspice\talkbox.asc

R18: both pins shorted together -- ignoring.
WARNING: Node N006 is floating.

WARNING: Less than two connections to node N006.  This node is used by C11.
Direct Newton iteration failed to find .op point.  (Use ".option noopiter" to skip.)
Starting Gmin stepping
Gmin = 10
Gmin = 1.07374
vernier = 0.5
vernier = 0.25
vernier = 0.125
vernier = 0.0625
Gmin = 1.08884
vernier = 0.03125
vernier = 0.015625
Gmin = 1.03122
vernier = 0.0078125
vernier = 0.0104167
vernier = 0.00520833
Gmin = 1.01988
vernier = 0.00260417
vernier = 0.00347222
Gmin = 1.01305
vernier = 0.00173611
vernier = 0.00231481
vernier = 0.00115741
Gmin = 1.01085
vernier = 0.00154321
vernier = 0.000771604
Gmin = 1.00871
vernier = 0.00102881
vernier = 0.000514403
Gmin = 1.00715
vernier = 0.00068587
vernier = 0.000514403
Gmin = 1.0059
vernier = 0.00068587
vernier = 0.000514402
Gmin = 0
Gmin stepping failed

Starting source stepping with srcstepmethod=0
Source Step = 1%
Source Step = 11%
Source Step = 21%
Source Step = 31%
Source Step = 41%
Source Step = 51%
Source Step = 61%
Source Step = 71%
Source Step = 81%
Source Step = 91%
Source stepping succeeded in finding the operating point.

.step r_tone=10
.step r_tone=2010
.step r_tone=4010
.step r_tone=6010
.step r_tone=8010
.step r_tone=10010
.step r_tone=12010
.step r_tone=14010
.step r_tone=16010
.step r_tone=18010
.step r_tone=20000

Date: Fri May 29 00:52:52 2020
Total elapsed time: 1.476 seconds.

tnom = 27
temp = 27
method = trap
totiter = 6470
traniter = 0
tranpoints = 0
accept = 0
rejected = 0
matrix size = 18
fillins = 8
solver = Normal
Matrix Compiler1:      72 opcodes
Matrix Compiler2: off  [0.3]/0.4/0.8

