Circuit: * C:\Users\rata\Dropbox\Ratatech\projects\ratatech_talkbox\ltspice\talkbox.asc

R10: both pins shorted together -- ignoring.
WARNING: Node POWER_AMP_OUT is floating.

WARNING: Less than two connections to node POWER_AMP_OUT.  This node is used by C4.
Direct Newton iteration failed to find .op point.  (Use ".option noopiter" to skip.)
Starting Gmin stepping
Gmin = 10
Gmin = 1.07374
vernier = 0.5
vernier = 0.25
vernier = 0.125
vernier = 0.0625
Gmin = 1.08884
vernier = 0.03125
vernier = 0.015625
Gmin = 1.03122
vernier = 0.0078125
vernier = 0.0104167
vernier = 0.00520833
Gmin = 1.01988
vernier = 0.00260417
vernier = 0.00347222
Gmin = 1.01305
vernier = 0.00173611
vernier = 0.00231481
vernier = 0.00115741
Gmin = 1.01085
vernier = 0.00154321
vernier = 0.000771604
Gmin = 1.00871
vernier = 0.00102881
vernier = 0.000514403
Gmin = 1.00715
vernier = 0.00068587
vernier = 0.000514403
Gmin = 1.0059
vernier = 0.00068587
vernier = 0.000514402
Gmin = 0
Gmin stepping failed

Starting source stepping with srcstepmethod=0
Source Step = 1%
Source Step = 11%
Source Step = 21%
Source Step = 31%
Source Step = 41%
Source Step = 51%
Source Step = 61%
Source Step = 71%
Source Step = 81%
Source Step = 91%
Source stepping succeeded in finding the operating point.

.step r=10
.step r=1010
.step r=2010
.step r=3010
.step r=4010
.step r=5010
.step r=6010
.step r=7010
.step r=8010
.step r=9010
.step r=10000

Date: Tue May 26 00:17:14 2020
Total elapsed time: 2.952 seconds.

tnom = 27
temp = 27
method = trap
totiter = 6496
traniter = 0
tranpoints = 0
accept = 0
rejected = 0
matrix size = 40
fillins = 32
solver = Normal
Matrix Compiler1:     206 opcodes
Matrix Compiler2: off  [0.6]/1.0/1.0

